/*--------------------------------*- C++ -*----------------------------------*\
  =========                 |
  \\      /  F ield         | OpenFOAM: The Open Source CFD Toolbox
   \\    /   O peration     | Website:  https://openfoam.org
    \\  /    A nd           | Version:  11
     \\/     M anipulation  |
\*---------------------------------------------------------------------------*/
FoamFile
{
    format      ascii;
    class       polyBoundaryMesh;
    location    "constant/polyMesh";
    object      boundary;
}
// * * * * * * * * * * * * * * * * * * * * * * * * * * * * * * * * * * * * * //

4
(
    wall-fluid_domain
    {
        type            wall;
        inGroups        List<word> 1(wall);
        nFaces          34907;
        startFace       1156935;
    }
    inlet
    {
        type            patch;
        nFaces          591;
        startFace       1191842;
    }
    outlet_1
    {
        type            patch;
        nFaces          575;
        startFace       1192433;
    }
    outlet_2
    {
        type            patch;
        nFaces          597;
        startFace       1193008;
    }
)

// ************************************************************************* //
