FoamFile
{
    format      ascii;
    class       dictionary;
    object      fvSolution;
}
solvers
{
    p
    {
        solver          GAMG;
        tolerance       1e-7;
        relTol          0.01;
        smoother        GaussSeidel;
    }
    U
    {
        solver          smoothSolver;
        smoother        GaussSeidel;
        tolerance       1e-8;
        relTol          0.1;
    }
}
SIMPLE
{
    residualControl
    {
        p               1e-5;
        U               1e-5;
    }
    nNonOrthogonalCorrectors 0;
    pRefCell        0;
    pRefValue       0;
}
relaxationFactors
{
    fields
    {
        p               0.3;
    }
    equations
    {
        U               0.5;
    }
}
