FoamFile
{
    format      ascii;
    class       volVectorField;
    object      U;
}
dimensions      [0 1 -1 0 0 0 0];
internalField   uniform (0 0 0);
boundaryField
{
    inlet
    {
        type            surfaceNormalFixedValue;
        refValue        uniform -0.25842983254031127;
    }
    outlet_1
    {
        type            zeroGradient;
    }
    outlet_2
    {
        type            zeroGradient;
    }
    wall-fluid_domain
    {
        type            noSlip;
    }
}
